Circuit: * C:\Users\nicob\OneDrive\Dokumente\Own_Projects\Nerf-ATG-Electronics\Simulations\LTSpice\IR-Led-Constant_Current.asc

Limiting rise time of source v4 to 1.3e-006
Limiting fall time of source v4 to 1.3e-006
Limiting rise time of source v3 to 1.3e-006
Limiting fall time of source v3 to 1.3e-006
WARNING: Less than two connections to node 3.3V.  This node is used by V2.
WARNING: Less than two connections to node NC_01.  This node is used by R1.
Direct Newton iteration failed to find .op point.  (Use ".option noopiter" to skip.)
Starting Gmin stepping
Gmin = 10
Gmin = 1.07374
vernier = 0.5
vernier = 0.25
vernier = 0.125
vernier = 0.0625
Gmin = 0.995033
vernier = 0.03125
vernier = 0.015625
vernier = 0.0078125
vernier = 0.00390625
Gmin = 0.999816
vernier = 0.00195313
vernier = 0.000976563
vernier = 0.000488281
Gmin = 0
Gmin stepping failed

Starting source stepping with srcstepmethod=0
Source Step = 3.0303%
Source Step = 33.3333%
Source Step = 63.6364%
Source Step = 93.9394%
Source stepping succeeded in finding the operating point.


Date: Wed Apr 23 10:07:32 2025
Total elapsed time: 0.177 seconds.

tnom = 27
temp = 27
method = modified trap
totiter = 7536
traniter = 5475
tranpoints = 1898
accept = 1632
rejected = 266
matrix size = 25
fillins = 21
solver = Normal
Matrix Compiler1: 2.14 KB object code size  0.5/0.2/[0.2]
Matrix Compiler2: off  [0.2]/0.2/0.3

