Circuit: * C:\Users\nicob\OneDrive\Dokumente\Own_Projects\Nerf-ATG-Electronics\Simulations\LTSpice\IR-Led-Constant_Current_old.asc

Limiting rise time of source v2 to 1.3e-006
Limiting fall time of source v2 to 1.3e-006
Direct Newton iteration for .op point succeeded.

Date: Wed Apr 23 09:53:00 2025
Total elapsed time: 0.126 seconds.

tnom = 27
temp = 27
method = modified trap
totiter = 3851
traniter = 3836
tranpoints = 1528
accept = 1386
rejected = 142
matrix size = 22
fillins = 10
solver = Normal
Matrix Compiler1: 2.01 KB object code size  0.3/0.2/[0.2]
Matrix Compiler2: off  [0.2]/0.3/0.2

