Circuit: * C:\Users\nicob\OneDrive\Dokumente\Own_Projects\Nerf-ATG-Electronics\Simulations\Draft1.asc

Limiting rise time of source v2 to 1.3e-006
Limiting fall time of source v2 to 1.3e-006
Direct Newton iteration for .op point succeeded.

Date: Mon Apr 21 21:41:11 2025
Total elapsed time: 0.056 seconds.

tnom = 27
temp = 27
method = modified trap
totiter = 3621
traniter = 3605
tranpoints = 1554
accept = 1404
rejected = 150
matrix size = 10
fillins = 0
solver = Normal
Matrix Compiler1: 444 bytes object code size  0.1/0.0/[0.0]
Matrix Compiler2: off  [0.1]/0.1/0.1

