Circuit: * C:\Users\nicob\OneDrive\Dokumente\Own_Projects\Nerf-ATG-Electronics\Simulations\IR-Led-Constant_Current.asc

Limiting rise time of source v3 to 1.3e-006
Limiting fall time of source v3 to 1.3e-006
Direct Newton iteration failed to find .op point.  (Use ".option noopiter" to skip.)
Starting Gmin stepping
Gmin = 10
Gmin = 1.07374
Gmin = 0.115292
Gmin = 0.0123794
Gmin = 0.00132923
Gmin = 0.000142725
Gmin = 1.5325e-005
Gmin = 1.6455e-006
Gmin = 1.76685e-007
Gmin = 1.89714e-008
Gmin = 2.03704e-009
Gmin = 2.18725e-010
Gmin = 2.34854e-011
Gmin = 2.52173e-012
Gmin = 2.70769e-013
Gmin = 0
Gmin stepping succeeded in finding the operating point.


Date: Tue Apr 22 10:10:41 2025
Total elapsed time: 0.140 seconds.

tnom = 27
temp = 27
method = modified trap
totiter = 4680
traniter = 4238
tranpoints = 1782
accept = 1511
rejected = 271
matrix size = 24
fillins = 14
solver = Normal
Matrix Compiler1: 2.04 KB object code size  0.4/0.2/[0.2]
Matrix Compiler2: off  [0.1]/0.2/0.2

